# generated using pymatgen
data_Li7La3Zr2O12
_symmetry_space_group_name_H-M   I4_1/acd
_cell_length_a   13.23607000
_cell_length_b   13.23607000
_cell_length_c   12.70170600
_cell_angle_alpha   90.00000000
_cell_angle_beta   90.00000000
_cell_angle_gamma   90.00000000
_symmetry_Int_Tables_number   142
_chemical_formula_structural   Li7La3Zr2O12
_chemical_formula_sum   'Li56 La24 Zr16 O96'
_cell_volume   2225.25695306
_cell_formula_units_Z   8
loop_
 _symmetry_equiv_pos_site_id
 _symmetry_equiv_pos_as_xyz
  1  'x, y, z'
  2  '-y+1/2, x, z+3/4'
  3  '-x, -y, z'
  4  'y+1/2, -x, z+3/4'
  5  'x, -y+1/2, -z+3/4'
  6  '-y, -x, -z+1/2'
  7  '-x, y+1/2, -z+3/4'
  8  'y, x, -z+1/2'
  9  '-x+1/2, -y, -z+3/4'
  10  'y, -x, -z'
  11  'x+1/2, y, -z+3/4'
  12  '-y, x, -z'
  13  '-x, y, z+1/2'
  14  'y, x+1/2, z+3/4'
  15  'x, -y, z+1/2'
  16  '-y, -x+1/2, z+3/4'
  17  'x+1/2, y+1/2, z+1/2'
  18  '-y, x+1/2, z+1/4'
  19  '-x+1/2, -y+1/2, z+1/2'
  20  'y, -x+1/2, z+1/4'
  21  'x+1/2, -y, -z+1/4'
  22  '-y+1/2, -x+1/2, -z'
  23  '-x+1/2, y, -z+1/4'
  24  'y+1/2, x+1/2, -z'
  25  '-x, -y+1/2, -z+1/4'
  26  'y+1/2, -x+1/2, -z+1/2'
  27  'x, y+1/2, -z+1/4'
  28  '-y+1/2, x+1/2, -z+1/2'
  29  '-x+1/2, y+1/2, z'
  30  'y+1/2, x, z+1/4'
  31  'x+1/2, -y+1/2, z'
  32  '-y+1/2, -x, z+1/4'
loop_
 _atom_site_type_symbol
 _atom_site_label
 _atom_site_symmetry_multiplicity
 _atom_site_fract_x
 _atom_site_fract_y
 _atom_site_fract_z
 _atom_site_occupancy
  Li  Li0  32  0.08051550  0.83753450  0.93085650  1
  Li  Li1  16  0.18121100  0.18121100  0.25000000  1
  Li  Li2  8  0.00000000  0.00000000  0.00000000  1
  La  La3  16  0.12737000  0.25000000  0.87500000  1
  La  La4  8  0.00000000  0.00000000  0.25000000  1
  Zr  Zr5  16  0.00000000  0.25000000  0.12500000  1
  O  O6  32  0.03461600  0.19451700  0.27870400  1
  O  O7  32  0.05496300  0.39755700  0.15933300  1
  O  O8  32  0.15082300  0.22322700  0.07123600  1
